Version 4
SHEET 1 2276 680
WIRE 736 32 320 32
WIRE 320 48 320 32
WIRE 1920 144 1808 144
WIRE 2192 144 1920 144
WIRE 1920 160 1920 144
WIRE 0 192 0 176
WIRE 0 192 -80 192
WIRE 2192 192 2192 144
WIRE 0 208 0 192
WIRE 1808 208 1808 144
WIRE -80 240 -80 192
WIRE 1392 240 1328 240
WIRE 320 256 320 208
WIRE 480 256 320 256
WIRE 592 256 480 256
WIRE 1664 256 1456 256
WIRE 736 272 736 32
WIRE 736 272 656 272
WIRE 944 272 736 272
WIRE 1072 272 1024 272
WIRE 1392 272 1072 272
WIRE 0 288 0 272
WIRE 592 288 560 288
WIRE 736 288 736 272
WIRE 320 320 320 256
WIRE 1920 336 1920 304
WIRE 2112 336 2112 96
WIRE 2112 336 1920 336
WIRE 2192 336 2192 272
WIRE 2192 336 2112 336
WIRE 480 352 480 256
WIRE 1072 352 1072 272
WIRE 1328 352 1328 240
WIRE 560 368 560 288
WIRE 736 368 560 368
WIRE 1920 368 1920 336
WIRE 320 416 320 384
WIRE 320 512 320 480
WIRE 480 512 480 416
WIRE 480 512 320 512
WIRE 736 512 736 448
WIRE 736 512 480 512
WIRE 1072 512 1072 432
WIRE 1072 512 736 512
WIRE 1328 512 1328 432
WIRE 1328 512 1072 512
WIRE 1808 512 1808 304
WIRE 1808 512 1328 512
WIRE 1920 512 1920 432
WIRE 1920 512 1808 512
WIRE 736 560 736 512
FLAG 736 560 0
FLAG 0 96 V+
FLAG 0 288 V-
FLAG 624 240 V+
FLAG 1424 224 V+
FLAG 624 304 V-
FLAG 1424 288 V-
FLAG -80 240 0
FLAG 2112 16 V+
SYMBOL res 304 32 R0
SYMATTR InstName R1
SYMATTR Value 10k
SYMBOL res 304 112 R0
SYMATTR InstName R2
SYMATTR Value 10k
SYMBOL res 720 272 R0
SYMATTR InstName R3
SYMATTR Value 100k
SYMBOL res 720 352 R0
SYMATTR InstName R4
SYMATTR Value 10k
SYMBOL zener 304 320 R0
SYMATTR InstName D1
SYMATTR Value BZX84C6V2L
SYMBOL zener 336 480 R180
WINDOW 0 24 64 Left 2
WINDOW 3 24 0 Left 2
SYMATTR InstName D2
SYMATTR Value BZX84C6V2L
SYMBOL cap 464 352 R0
SYMATTR InstName C1
SYMATTR Value 3.6n
SYMBOL res 928 288 R270
WINDOW 0 32 56 VTop 2
WINDOW 3 0 56 VBottom 2
SYMATTR InstName R5
SYMATTR Value 51k
SYMBOL res 1056 336 R0
SYMATTR InstName R6
SYMATTR Value 10k
SYMBOL voltage 0 80 R0
WINDOW 123 0 0 Left 0
WINDOW 39 0 0 Left 0
SYMATTR InstName V1
SYMATTR Value 15
SYMBOL voltage 0 192 R0
WINDOW 123 0 0 Left 0
WINDOW 39 0 0 Left 0
SYMATTR InstName V2
SYMATTR Value 15
SYMBOL Opamps\\OP07 624 208 R0
SYMATTR InstName U1
SYMBOL Opamps\\OP07 1424 192 R0
SYMATTR InstName U2
SYMBOL res 1312 336 R0
SYMATTR InstName R7
SYMATTR Value 10k
SYMBOL res 1760 240 R90
WINDOW 0 0 56 VBottom 2
WINDOW 3 32 56 VTop 2
SYMATTR InstName R8
SYMATTR Value 10k
SYMBOL res 2176 176 R0
SYMATTR InstName R9
SYMATTR Value 1k
SYMBOL res 1904 208 R0
SYMATTR InstName R10
SYMATTR Value 100
SYMBOL cap 1904 160 R0
SYMATTR InstName C2
SYMATTR Value 4.7n
SYMBOL cap 1904 368 R0
SYMATTR InstName C3
SYMATTR Value 100µ
SYMBOL res 2096 0 R0
SYMATTR InstName R11
SYMATTR Value 200
SYMBOL npn 1744 208 R0
SYMATTR InstName Q1
SYMATTR Value 2SCR375P
TEXT -110 352 Left 2 !.tran 0 100m 90m
TEXT -112 376 Left 2 !.inc opamp.sub
TEXT 592 96 Center 2 ;Oscillator\n(Triangle wave)
TEXT 1416 120 Center 2 ;Comparator\n(Square wave)
TEXT 1664 80 Left 2 ;Driver stage\n(R9 substitutes transformer primary)
