**************************************
*      Model Generated by MODPEX     *
*Copyright(c) Symmetry Design Systems*
*         All Rights Reserved        *
*    UNPUBLISHED LICENSED SOFTWARE   *
*   Contains Proprietary Information *
*      Which is The Property of      *
*     SYMMETRY OR ITS LICENSORS      *
*Commercial Use or Resale Restricted *
*   by Symmetry License Agreement    *
**************************************
* Model generated on Feb 28, 13
* MODEL FORMAT: PSpice
.MODEL Q2n2222a npn
+IS=3.88184e-14 BF=929.846 NF=1.10496 VAF=16.5003
+IKF=0.019539 ISE=1.0168e-11 NE=1.94752 BR=48.4545
+NR=1.07004 VAR=40.538 IKR=0.19539 ISC=1.0168e-11
+NC=4 RB=0.1 IRB=0.1 RBM=0.1
+RE=0.0001 RC=0.426673 XTB=0.1 XTI=1
+EG=1.05 CJE=2.23677e-11 VJE=0.582701 MJE=0.63466
+TF=4.06711e-10 XTF=3.92912 VTF=17712.6 ITF=0.4334
+CJC=2.23943e-11 VJC=0.576146 MJC=0.632796 XCJC=1
+FC=0.170253 CJS=0 VJS=0.75 MJS=0.5
+TR=1e-07 PTF=0 KF=0 AF=1

.MODEL 2N3440 npn IS=9.94996F BF=1063.605 NF=913.046M VAF=100 IKF=15.5211M
+ISE=100P NE=2.01619 BR=236.408M IKR=28.4896 ISC=21.8458F RE=329.989M
+CJE=108.21P VJE=999.994M MJE=432.75M CJC=19.8784P VJC=700M MJC=317.349M
+FC=500.001M TF=1N XTF=4.42138 VTF=10.0067 ITF=839.703F TR=12.5513U


.MODEL 2SD110 npn IS=9.94996F BF=10 NF=913.046M VAF=100 IKF=15.5211M
+ISE=100P NE=2.01619 BR=236.408M IKR=28.4896 ISC=21.8458F RE=329.989M
+CJE=108.21P VJE=999.994M MJE=432.75M CJC=19.8784P VJC=700M MJC=317.349M
+FC=500.001M TF=1N XTF=4.42138 VTF=10.0067 ITF=839.703F TR=12.5513U

.MODEL Q2SC5198 NPN(IS=10.000E-15 BF=105 VAF=100 IKF=10.000E-3 XTB=1.5 BR=.1001 VAR=100 IKR=10.000E-3 ISC=10.000E-15 CJE=2.0000E-12 CJC=412.95E-12 MJC=.33333 TF=608.00E-12 XTF=10 VTF=10 ITF=1 mfg=Toshiba)

.MODEL 2SD880 NPN IS=39.864E-15 BF=332.17 VAF=100 IKF=3.5344 ISE=1.2053p NE=1.4486 BR=499.50 VAR=100 IKR=19.980 ISC=2.0758p NC=1.2733 NK=.79902 RC=.14484 CJE=219.35E-12 MJE=.33333 CJC=170.04p MJC=.33333 TF=14.092n XTF=10 VTF=10 ITF=1 TR=73n
